/*--------------------------------*- C++ -*----------------------------------*\
  =========                 |
  \\      /  F ield         | OpenFOAM: The Open Source CFD Toolbox
   \\    /   O peration     | Website:  https://openfoam.org
    \\  /    A nd           | Version:  12
     \\/     M anipulation  |
\*---------------------------------------------------------------------------*/
FoamFile
{
    format      ascii;
    class       volScalarField;
    object      T;
}
// * * * * * * * * * * * * * * * * * * * * * * * * * * * * * * * * * * * * * //

dimensions      [0 0 0 1 0 0 0];

internalField   uniform 1;

boundaryField
{
    back
    {
        type            empty;
    }

    front
    {
        type            empty;
    }

    outlet
    {
        type            zeroGradient;
    }

    top
    {
        type            zeroGradient;
    }

    inlet
    {
        type            fixedValue;
        value           $internalField;
    }
    
    bottom
    {
        type            zeroGradient;
    }

    diamondLeftUpper
    {
        type            zeroGradient;
    }

    diamondRightUpper
    {
        type            zeroGradient;
    }

    diamondRightLower
    {
        type            zeroGradient;
    }

    diamondLeftLower
    {
        type            zeroGradient;
    }
}

// ************************************************************************* //
