/*--------------------------------*- C++ -*----------------------------------*\
  =========                 |
  \\      /  F ield         | OpenFOAM: The Open Source CFD Toolbox
   \\    /   O peration     | Website:  https://openfoam.org
    \\  /    A nd           | Version:  12
     \\/     M anipulation  |
\*---------------------------------------------------------------------------*/
FoamFile
{
    format      ascii;
    class       polyBoundaryMesh;
    location    "constant/polyMesh";
    object      boundary;
}
// * * * * * * * * * * * * * * * * * * * * * * * * * * * * * * * * * * * * * //

10
(
    back
    {
        type            empty;
        inGroups        List<word> 1(empty);
        nFaces          45568;
        startFace       67988;
    }
    front
    {
        type            empty;
        inGroups        List<word> 1(empty);
        nFaces          45568;
        startFace       113556;
    }
    outlet
    {
        type            patch;
        physicalType    patch;
        nFaces          100;
        startFace       159124;
    }
    top
    {
        type            wall;
        nFaces          200;
        startFace       159224;
    }
    inlet
    {
        type            patch;
        physicalType    patch;
        nFaces          100;
        startFace       159424;
    }
    bottom
    {
        type            wall;
        nFaces          200;
        startFace       159524;
    }
    diamondLeftUpper
    {
        type            wall;
        nFaces          32;
        startFace       159724;
    }
    diamondRightUpper
    {
        type            wall;
        nFaces          32;
        startFace       159756;
    }
    diamondRightLower
    {
        type            wall;
        nFaces          32;
        startFace       159788;
    }
    diamondLeftLower
    {
        type            wall;
        nFaces          32;
        startFace       159820;
    }
)

// ************************************************************************* //
