/*--------------------------------*- C++ -*----------------------------------*\
  =========                 |
  \\      /  F ield         | OpenFOAM: The Open Source CFD Toolbox
   \\    /   O peration     | Website:  https://openfoam.org
    \\  /    A nd           | Version:  12
     \\/     M anipulation  |
\*---------------------------------------------------------------------------*/
FoamFile
{
    format      ascii;
    class       polyBoundaryMesh;
    location    "constant/polyMesh";
    object      boundary;
}
// * * * * * * * * * * * * * * * * * * * * * * * * * * * * * * * * * * * * * //

8
(
    back
    {
        type            empty;
        inGroups        List<word> 1(empty);
        nFaces          183995;
        startFace       275392;
    }
    front
    {
        type            empty;
        inGroups        List<word> 1(empty);
        nFaces          183995;
        startFace       459387;
    }
    outlet
    {
        type            patch;
        physicalType    patch;
        nFaces          200;
        startFace       643382;
    }
    top
    {
        type            wall;
        nFaces          400;
        startFace       643582;
    }
    inlet
    {
        type            patch;
        physicalType    patch;
        nFaces          200;
        startFace       643982;
    }
    bottomLeft
    {
        type            wall;
        nFaces          100;
        startFace       644182;
    }
    bottom
    {
        type            wall;
        nFaces          201;
        startFace       644282;
    }
    bottomRight
    {
        type            wall;
        nFaces          100;
        startFace       644483;
    }
)

// ************************************************************************* //
