/*--------------------------------*- C++ -*----------------------------------*\
  =========                 |
  \\      /  F ield         | OpenFOAM: The Open Source CFD Toolbox
   \\    /   O peration     | Website:  https://openfoam.org
    \\  /    A nd           | Version:  12
     \\/     M anipulation  |
\*---------------------------------------------------------------------------*/
FoamFile
{
    format      ascii;
    class       polyBoundaryMesh;
    location    "constant/polyMesh";
    object      boundary;
}
// * * * * * * * * * * * * * * * * * * * * * * * * * * * * * * * * * * * * * //

6
(
    back
    {
        type            empty;
        inGroups        List<word> 1(empty);
        nFaces          9801;
        startFace       19404;
    }
    outlet
    {
        type            patch;
        physicalType    patch;
        nFaces          99;
        startFace       29205;
    }
    top
    {
        type            patch;
        physicalType    patch;
        nFaces          99;
        startFace       29304;
    }
    inlet
    {
        type            patch;
        physicalType    patch;
        nFaces          99;
        startFace       29403;
    }
    bottom
    {
        type            wall;
        nFaces          99;
        startFace       29502;
    }
    front
    {
        type            empty;
        inGroups        List<word> 1(empty);
        nFaces          9801;
        startFace       29601;
    }
)

// ************************************************************************* //
