/*--------------------------------*- C++ -*----------------------------------*\
  =========                 |
  \\      /  F ield         | OpenFOAM: The Open Source CFD Toolbox
   \\    /   O peration     | Website:  https://openfoam.org
    \\  /    A nd           | Version:  12
     \\/     M anipulation  |
\*---------------------------------------------------------------------------*/
FoamFile
{
    format      ascii;
    class       polyBoundaryMesh;
    location    "constant/polyMesh";
    object      boundary;
}
// * * * * * * * * * * * * * * * * * * * * * * * * * * * * * * * * * * * * * //

6
(
    back
    {
        type            empty;
        inGroups        List<word> 1(empty);
        nFaces          23795;
        startFace       35488;
    }
    front
    {
        type            empty;
        inGroups        List<word> 1(empty);
        nFaces          23795;
        startFace       59283;
    }
    outlet
    {
        type            patch;
        physicalType    patch;
        nFaces          100;
        startFace       83078;
    }
    top
    {
        type            patch;
        physicalType    patch;
        nFaces          100;
        startFace       83178;
    }
    inlet
    {
        type            patch;
        physicalType    patch;
        nFaces          100;
        startFace       83278;
    }
    bottom
    {
        type            wall;
        nFaces          109;
        startFace       83378;
    }
)

// ************************************************************************* //
